%nproc=4
%mem=4GB
%chk=deprotonated2-checkpoint_file.chk
#p b3lyp/6-31G(d) opt freq scrf=(iefpcm,smd,solvent=water)

7-OHCCA deprotonated derivative

-1 1
 C                  3.33100000   -0.09877700    0.00031200
 C                  2.29844200   -1.04261500   -0.00005200
 C                  0.99393100   -0.57813600   -0.00047000
 C                  0.67723600    0.79864700   -0.00058600
 C                  1.74741700    1.72345200   -0.00019600
 C                  3.05527800    1.28709800    0.00021700
 H                  2.51439000   -2.10476000    0.00005000
 C                 -0.69028100    1.16627000   -0.00041800
 H                  1.52112300    2.78521200   -0.00032000
 H                  3.88137800    1.99223600    0.00039500
 C                 -1.68645900    0.22184500   -0.00033800
 C                 -1.34056000   -1.18406900   -0.00034000
 C                 -3.10878700    0.65449700    0.00025200
 O                 -3.44140500    1.83276500    0.00000700
 O                 -4.04586300   -0.30888300    0.00101600
 O                  4.60128800   -0.57299000    0.00074500
 H                  5.22861700    0.17291500    0.00081500
 O                 -0.00903800   -1.51978100   -0.00088600
 O                 -2.13690300   -2.12590800    0.00011800
 O                 -1.04376338    2.55189264   -0.00009275
 H                 -1.99674328    2.63948054    0.07578655

--link1--
%nproc=4
%mem=4GB
%chk=deprotonated2-checkpoint_file.chk
#p b3lyp/6-31G(d) geom=allcheck guess=read

